16

C          4.63235        2.06134       11.34555
C          4.63235        4.52201       11.34555
C          0.37034        2.06134       11.34555
C          0.37034        4.52201       11.34555
C          3.21168        2.06134       11.34555
C          3.21168        4.52201       11.34555
C         -1.05033        2.06134       11.34555
C         -1.05033        4.52201       11.34555
C          2.50134        3.29168       11.34555
C          2.50134        5.75235       11.34555
C         -1.76067        3.29168       11.34555
C         -1.76067        5.75235       11.34555
C          1.08067        3.29168       11.34555
C          1.08067        5.75235       11.34555
C         -3.18134        3.29168       11.34555
C         -3.18134        5.75235       11.34555
